Version 4
SHEET 1 1020 680
WIRE 768 -112 688 -112
WIRE 912 -112 848 -112
WIRE 768 16 688 16
WIRE 912 16 912 -112
WIRE 912 16 848 16
WIRE 944 16 912 16
WIRE 272 32 224 32
WIRE 368 48 336 48
WIRE 400 48 368 48
WIRE 112 64 64 64
WIRE 272 64 240 64
WIRE 224 80 224 32
WIRE 224 80 176 80
WIRE 64 96 64 64
WIRE 64 96 32 96
WIRE 112 96 80 96
WIRE 240 96 240 64
WIRE 352 96 240 96
WIRE 368 112 368 48
WIRE 368 112 256 112
WIRE 80 128 80 96
WIRE 80 128 32 128
WIRE 80 144 80 128
WIRE 112 144 80 144
WIRE 256 144 256 112
WIRE 272 144 256 144
WIRE 768 144 688 144
WIRE 912 144 912 16
WIRE 912 144 848 144
WIRE 64 160 32 160
WIRE 352 160 352 96
WIRE 352 160 336 160
WIRE 400 160 352 160
WIRE 64 176 64 160
WIRE 112 176 64 176
WIRE 176 176 176 160
WIRE 272 176 176 176
FLAG 32 96 R
IOPIN 32 96 In
FLAG 32 160 S
IOPIN 32 160 In
FLAG 32 128 C
IOPIN 32 128 In
FLAG 400 48 Q
IOPIN 400 48 Out
FLAG 400 160 ~Q
IOPIN 400 160 Out
FLAG 688 -112 C
IOPIN 688 -112 In
FLAG 688 16 S
IOPIN 688 16 In
FLAG 688 144 R
IOPIN 688 144 In
FLAG 944 16 0
SYMBOL voltage 752 -112 R270
WINDOW 0 32 56 VTop 2
WINDOW 3 -32 56 VBottom 2
WINDOW 123 0 0 Left 0
WINDOW 39 0 0 Left 0
SYMATTR InstName C
SYMATTR Value PULSE(0 5 0 1n 1n 10 20)
SYMBOL voltage 752 16 R270
WINDOW 0 32 56 VTop 2
WINDOW 3 -32 56 VBottom 2
WINDOW 123 0 0 Left 0
WINDOW 39 0 0 Left 0
SYMATTR InstName S
SYMATTR Value PULSE(0 5 2 1n 1n 4 8)
SYMBOL voltage 752 144 R270
WINDOW 0 32 56 VTop 2
WINDOW 3 -32 56 VBottom 2
WINDOW 123 0 0 Left 0
WINDOW 39 0 0 Left 0
SYMATTR InstName R
SYMATTR Value PULSE(0 5 1n 1n 1n 4 8)
SYMBOL DigitalLibraryv100\\Lib\\sym\\DigitalLogic\\NOR_2 304 160 R0
SYMATTR InstName U10
SYMBOL DigitalLibraryv100\\Lib\\sym\\DigitalLogic\\NOR_2 304 48 R0
SYMATTR InstName U11
SYMBOL DigitalLibraryv100\\Lib\\sym\\DigitalLogic\\AND_2 144 160 R0
SYMATTR InstName U1
SYMBOL DigitalLibraryv100\\Lib\\sym\\DigitalLogic\\AND_2 144 80 R0
SYMATTR InstName U2
TEXT -72 348 Left 2 !.tran 20
