Version 4
SHEET 1 936 680
WIRE 592 -48 432 -48
WIRE 720 -48 592 -48
WIRE -112 16 -176 16
WIRE -64 16 -112 16
WIRE 432 48 432 -48
WIRE 592 48 432 48
WIRE -176 64 -176 16
WIRE -64 64 -64 16
WIRE 432 80 432 48
WIRE 592 80 592 48
WIRE 288 144 160 144
WIRE 384 144 288 144
WIRE -176 176 -176 144
WIRE -64 176 -64 144
WIRE -64 176 -176 176
WIRE 432 192 432 144
WIRE 592 192 592 144
WIRE 592 192 432 192
WIRE 160 208 160 144
WIRE 432 208 432 192
WIRE 720 208 720 -48
WIRE 160 352 160 288
WIRE 432 352 432 288
WIRE 432 352 160 352
WIRE 720 352 720 288
WIRE 720 352 432 352
WIRE 432 400 432 352
FLAG 432 400 0
FLAG 288 144 control
FLAG 592 -48 in
FLAG 432 192 out
FLAG -176 176 0
FLAG -112 16 load_mean
SYMBOL Misc\\SCR 416 80 R0
SYMATTR InstName U1
SYMATTR Value EC103M1
SYMBOL voltage 160 192 R0
WINDOW 3 -167 110 Left 2
WINDOW 123 0 0 Left 0
WINDOW 39 0 0 Left 0
SYMATTR Value PULSE(0 2 0.005 0 0 0.000001 0.02)
SYMATTR InstName V1
SYMBOL voltage 720 192 R0
WINDOW 123 0 0 Left 0
WINDOW 39 0 0 Left 0
SYMATTR InstName V2
SYMATTR Value SINE(0 10 {f})
SYMBOL res 416 192 R0
SYMATTR InstName R1
SYMATTR Value 10
SYMBOL voltage -176 48 R0
WINDOW 3 -90 106 Left 2
WINDOW 123 0 0 Left 0
WINDOW 39 0 0 Left 0
SYMATTR Value {V_load_mean}
SYMATTR InstName V3
SYMBOL res -80 48 R0
SYMATTR InstName R2
SYMATTR Value 10000
SYMBOL schottky 608 144 R180
WINDOW 0 24 64 Left 2
WINDOW 3 -44 -4 Left 2
SYMATTR InstName D1
SYMATTR Value 1N5819
SYMATTR Description Diode
SYMATTR Type diode
TEXT -136 -144 Left 2 !.inc Thyristor_SCR_EC103xx_SxSx_A_SPICE_Model_lib.lib
TEXT -136 -112 Left 2 !.param f=50
TEXT -136 424 Left 2 !.tran 0 0.1 0 0.000001
TEXT -136 -88 Left 2 !.param V_load_mean=6.12
