Version 4
SHEET 1 1012 680
WIRE 768 -112 688 -112
WIRE 912 -112 848 -112
WIRE 768 16 688 16
WIRE 912 16 912 -112
WIRE 912 16 848 16
WIRE 944 16 912 16
WIRE 80 96 16 96
WIRE 288 112 144 112
WIRE 80 128 48 128
WIRE 400 128 352 128
WIRE 448 128 400 128
WIRE 288 144 256 144
WIRE 768 144 688 144
WIRE 912 144 912 16
WIRE 912 144 848 144
WIRE 256 176 256 144
WIRE 384 176 256 176
WIRE 48 192 48 128
WIRE 48 192 0 192
WIRE 400 192 400 128
WIRE 400 192 256 192
WIRE 256 224 256 192
WIRE 288 224 256 224
WIRE 48 240 48 192
WIRE 80 240 48 240
WIRE 384 240 384 176
WIRE 384 240 352 240
WIRE 448 240 384 240
WIRE 288 256 144 256
WIRE 80 272 16 272
FLAG 16 96 S
IOPIN 16 96 In
FLAG 16 272 R
IOPIN 16 272 In
FLAG 0 192 C
IOPIN 0 192 In
FLAG 448 128 Q
IOPIN 448 128 Out
FLAG 448 240 ~Q
IOPIN 448 240 Out
FLAG 688 -112 S
IOPIN 688 -112 In
FLAG 688 16 C
IOPIN 688 16 In
FLAG 688 144 R
IOPIN 688 144 In
FLAG 944 16 0
SYMBOL DigitalLibraryv100\\Lib\\sym\\DigitalLogic\\NOR_2 320 128 R0
SYMATTR InstName U3
SYMBOL DigitalLibraryv100\\Lib\\sym\\DigitalLogic\\NOR_2 320 240 R0
SYMATTR InstName U4
SYMBOL DigitalLibraryv100\\Lib\\sym\\DigitalLogic\\AND_2 112 112 R0
SYMATTR InstName U2
SYMBOL DigitalLibraryv100\\Lib\\sym\\DigitalLogic\\AND_2 112 256 R0
SYMATTR InstName U5
SYMBOL voltage 752 -112 R270
WINDOW 0 32 56 VTop 2
WINDOW 3 -32 56 VBottom 2
SYMATTR InstName S
SYMBOL voltage 752 16 R270
WINDOW 0 32 56 VTop 2
WINDOW 3 -32 56 VBottom 2
SYMATTR InstName C
SYMBOL voltage 752 144 R270
WINDOW 0 32 56 VTop 2
WINDOW 3 -32 56 VBottom 2
SYMATTR InstName R
