Version 4
SHEET 1 1012 680
WIRE 576 96 336 96
WIRE 272 144 128 144
WIRE 128 176 128 144
WIRE 368 192 336 192
WIRE 368 224 368 192
FLAG 576 176 0
FLAG 368 224 0
FLAG 128 256 0
SYMBOL npn 272 96 R0
SYMATTR InstName Q1
SYMATTR Value 2N2369
SYMBOL voltage 576 80 R0
WINDOW 123 0 0 Left 0
WINDOW 39 0 0 Left 0
SYMATTR InstName V1
SYMATTR Value {U_CE}
SYMBOL voltage 128 160 R0
WINDOW 123 0 0 Left 0
WINDOW 39 0 0 Left 0
SYMATTR InstName V2
SYMATTR Value 0
TEXT 696 -8 Left 2 !.dc V2 0 1 0.001
TEXT 648 24 Left 2 !.step param U_CE 0 5 5
